<edges xmlns:xsi="http://www.w3.org/2001/XMLSchema-instance" version="0.13" xsi:noNamespaceSchemaLocation="http://sumo.dlr.de/xsd/edges_file.xsd">
    <edge from="0/0" id="0/0to0/1" numLanes="1" priority="-1" speed="13.90" to="0/1" />
    <edge from="0/0" id="0/0to1/0" numLanes="1" priority="-1" speed="13.90" to="1/0" />
    <edge from="0/1" id="0/1to0/0" numLanes="1" priority="-1" speed="13.90" to="0/0" />
    <edge from="0/1" id="0/1to0/2" numLanes="1" priority="-1" speed="13.90" to="0/2" />
    <edge from="0/1" id="0/1to1/1" numLanes="1" priority="-1" speed="13.90" to="1/1" />
    <edge from="0/2" id="0/2to0/1" numLanes="1" priority="-1" speed="13.90" to="0/1" />
    <edge from="0/2" id="0/2to0/3" numLanes="1" priority="-1" speed="13.90" to="0/3" />
    <edge from="0/2" id="0/2to1/2" numLanes="1" priority="-1" speed="13.90" to="1/2" />
    <edge from="0/3" id="0/3to0/2" numLanes="1" priority="-1" speed="13.90" to="0/2" />
    <edge from="0/3" id="0/3to0/4" numLanes="1" priority="-1" speed="13.90" to="0/4" />
    <edge from="0/3" id="0/3to1/3" numLanes="1" priority="-1" speed="13.90" to="1/3" />
    <edge from="0/4" id="0/4to0/3" numLanes="1" priority="-1" speed="13.90" to="0/3" />
    <edge from="0/4" id="0/4to0/5" numLanes="1" priority="-1" speed="13.90" to="0/5" />
    <edge from="0/4" id="0/4to1/4" numLanes="1" priority="-1" speed="13.90" to="1/4" />
    <edge from="0/5" id="0/5to0/4" numLanes="1" priority="-1" speed="13.90" to="0/4" />
    <edge from="0/5" id="0/5to0/6" numLanes="1" priority="-1" speed="13.90" to="0/6" />
    <edge from="0/5" id="0/5to1/5" numLanes="1" priority="-1" speed="13.90" to="1/5" />
    <edge from="0/6" id="0/6to0/5" numLanes="1" priority="-1" speed="13.90" to="0/5" />
    <edge from="0/6" id="0/6to0/7" numLanes="1" priority="-1" speed="13.90" to="0/7" />
    <edge from="0/6" id="0/6to1/6" numLanes="1" priority="-1" speed="13.90" to="1/6" />
    <edge from="0/7" id="0/7to0/6" numLanes="1" priority="-1" speed="13.90" to="0/6" />
    <edge from="0/7" id="0/7to0/8" numLanes="1" priority="-1" speed="13.90" to="0/8" />
    <edge from="0/7" id="0/7to1/7" numLanes="1" priority="-1" speed="13.90" to="1/7" />
    <edge from="0/8" id="0/8to0/7" numLanes="1" priority="-1" speed="13.90" to="0/7" />
    <edge from="0/8" id="0/8to0/9" numLanes="1" priority="-1" speed="13.90" to="0/9" />
    <edge from="0/8" id="0/8to1/8" numLanes="1" priority="-1" speed="13.90" to="1/8" />
    <edge from="0/9" id="0/9to0/8" numLanes="1" priority="-1" speed="13.90" to="0/8" />
    <edge from="0/9" id="0/9to1/9" numLanes="1" priority="-1" speed="13.90" to="1/9" />
    <edge from="1/0" id="1/0to0/0" numLanes="1" priority="-1" speed="13.90" to="0/0" />
    <edge from="1/0" id="1/0to1/1" numLanes="1" priority="-1" speed="13.90" to="1/1" />
    <edge from="1/0" id="1/0to2/0" numLanes="1" priority="-1" speed="13.90" to="2/0" />
    <edge from="1/1" id="1/1to0/1" numLanes="1" priority="-1" speed="13.90" to="0/1" />
    <edge from="1/1" id="1/1to1/0" numLanes="1" priority="-1" speed="13.90" to="1/0" />
    <edge from="1/1" id="1/1to1/2" numLanes="1" priority="-1" speed="13.90" to="1/2" />
    <edge from="1/1" id="1/1to2/1" numLanes="1" priority="-1" speed="13.90" to="2/1" />
    <edge from="1/2" id="1/2to0/2" numLanes="1" priority="-1" speed="13.90" to="0/2" />
    <edge from="1/2" id="1/2to1/1" numLanes="1" priority="-1" speed="13.90" to="1/1" />
    <edge from="1/2" id="1/2to1/3" numLanes="1" priority="-1" speed="13.90" to="1/3" />
    <edge from="1/2" id="1/2to2/2" numLanes="1" priority="-1" speed="13.90" to="2/2" />
    <edge from="1/3" id="1/3to0/3" numLanes="1" priority="-1" speed="13.90" to="0/3" />
    <edge from="1/3" id="1/3to1/2" numLanes="1" priority="-1" speed="13.90" to="1/2" />
    <edge from="1/3" id="1/3to1/4" numLanes="1" priority="-1" speed="13.90" to="1/4" />
    <edge from="1/3" id="1/3to2/3" numLanes="1" priority="-1" speed="13.90" to="2/3" />
    <edge from="1/4" id="1/4to0/4" numLanes="1" priority="-1" speed="13.90" to="0/4" />
    <edge from="1/4" id="1/4to1/3" numLanes="1" priority="-1" speed="13.90" to="1/3" />
    <edge from="1/4" id="1/4to1/5" numLanes="1" priority="-1" speed="13.90" to="1/5" />
    <edge from="1/4" id="1/4to2/4" numLanes="1" priority="-1" speed="13.90" to="2/4" />
    <edge from="1/5" id="1/5to0/5" numLanes="1" priority="-1" speed="13.90" to="0/5" />
    <edge from="1/5" id="1/5to1/4" numLanes="1" priority="-1" speed="13.90" to="1/4" />
    <edge from="1/5" id="1/5to1/6" numLanes="1" priority="-1" speed="13.90" to="1/6" />
    <edge from="1/5" id="1/5to2/5" numLanes="1" priority="-1" speed="13.90" to="2/5" />
    <edge from="1/6" id="1/6to0/6" numLanes="1" priority="-1" speed="13.90" to="0/6" />
    <edge from="1/6" id="1/6to1/5" numLanes="1" priority="-1" speed="13.90" to="1/5" />
    <edge from="1/6" id="1/6to1/7" numLanes="1" priority="-1" speed="13.90" to="1/7" />
    <edge from="1/6" id="1/6to2/6" numLanes="1" priority="-1" speed="13.90" to="2/6" />
    <edge from="1/7" id="1/7to0/7" numLanes="1" priority="-1" speed="13.90" to="0/7" />
    <edge from="1/7" id="1/7to1/6" numLanes="1" priority="-1" speed="13.90" to="1/6" />
    <edge from="1/7" id="1/7to1/8" numLanes="1" priority="-1" speed="13.90" to="1/8" />
    <edge from="1/7" id="1/7to2/7" numLanes="1" priority="-1" speed="13.90" to="2/7" />
    <edge from="1/8" id="1/8to0/8" numLanes="1" priority="-1" speed="13.90" to="0/8" />
    <edge from="1/8" id="1/8to1/7" numLanes="1" priority="-1" speed="13.90" to="1/7" />
    <edge from="1/8" id="1/8to1/9" numLanes="1" priority="-1" speed="13.90" to="1/9" />
    <edge from="1/8" id="1/8to2/8" numLanes="1" priority="-1" speed="13.90" to="2/8" />
    <edge from="1/9" id="1/9to0/9" numLanes="1" priority="-1" speed="13.90" to="0/9" />
    <edge from="1/9" id="1/9to1/8" numLanes="1" priority="-1" speed="13.90" to="1/8" />
    <edge from="1/9" id="1/9to2/9" numLanes="1" priority="-1" speed="13.90" to="2/9" />
    <edge from="2/0" id="2/0to1/0" numLanes="1" priority="-1" speed="13.90" to="1/0" />
    <edge from="2/0" id="2/0to2/1" numLanes="1" priority="-1" speed="13.90" to="2/1" />
    <edge from="2/0" id="2/0to3/0" numLanes="1" priority="-1" speed="13.90" to="3/0" />
    <edge from="2/1" id="2/1to1/1" numLanes="1" priority="-1" speed="13.90" to="1/1" />
    <edge from="2/1" id="2/1to2/0" numLanes="1" priority="-1" speed="13.90" to="2/0" />
    <edge from="2/1" id="2/1to2/2" numLanes="1" priority="-1" speed="13.90" to="2/2" />
    <edge from="2/1" id="2/1to3/1" numLanes="1" priority="-1" speed="13.90" to="3/1" />
    <edge from="2/2" id="2/2to1/2" numLanes="1" priority="-1" speed="13.90" to="1/2" />
    <edge from="2/2" id="2/2to2/1" numLanes="1" priority="-1" speed="13.90" to="2/1" />
    <edge from="2/2" id="2/2to2/3" numLanes="1" priority="-1" speed="13.90" to="2/3" />
    <edge from="2/2" id="2/2to3/2" numLanes="1" priority="-1" speed="13.90" to="3/2" />
    <edge from="2/3" id="2/3to1/3" numLanes="1" priority="-1" speed="13.90" to="1/3" />
    <edge from="2/3" id="2/3to2/2" numLanes="1" priority="-1" speed="13.90" to="2/2" />
    <edge from="2/3" id="2/3to2/4" numLanes="1" priority="-1" speed="13.90" to="2/4" />
    <edge from="2/3" id="2/3to3/3" numLanes="1" priority="-1" speed="13.90" to="3/3" />
    <edge from="2/4" id="2/4to1/4" numLanes="1" priority="-1" speed="13.90" to="1/4" />
    <edge from="2/4" id="2/4to2/3" numLanes="1" priority="-1" speed="13.90" to="2/3" />
    <edge from="2/4" id="2/4to2/5" numLanes="1" priority="-1" speed="13.90" to="2/5" />
    <edge from="2/4" id="2/4to3/4" numLanes="1" priority="-1" speed="13.90" to="3/4" />
    <edge from="2/5" id="2/5to1/5" numLanes="1" priority="-1" speed="13.90" to="1/5" />
    <edge from="2/5" id="2/5to2/4" numLanes="1" priority="-1" speed="13.90" to="2/4" />
    <edge from="2/5" id="2/5to2/6" numLanes="1" priority="-1" speed="13.90" to="2/6" />
    <edge from="2/5" id="2/5to3/5" numLanes="1" priority="-1" speed="13.90" to="3/5" />
    <edge from="2/6" id="2/6to1/6" numLanes="1" priority="-1" speed="13.90" to="1/6" />
    <edge from="2/6" id="2/6to2/5" numLanes="1" priority="-1" speed="13.90" to="2/5" />
    <edge from="2/6" id="2/6to2/7" numLanes="1" priority="-1" speed="13.90" to="2/7" />
    <edge from="2/6" id="2/6to3/6" numLanes="1" priority="-1" speed="13.90" to="3/6" />
    <edge from="2/7" id="2/7to1/7" numLanes="1" priority="-1" speed="13.90" to="1/7" />
    <edge from="2/7" id="2/7to2/6" numLanes="1" priority="-1" speed="13.90" to="2/6" />
    <edge from="2/7" id="2/7to2/8" numLanes="1" priority="-1" speed="13.90" to="2/8" />
    <edge from="2/7" id="2/7to3/7" numLanes="1" priority="-1" speed="13.90" to="3/7" />
    <edge from="2/8" id="2/8to1/8" numLanes="1" priority="-1" speed="13.90" to="1/8" />
    <edge from="2/8" id="2/8to2/7" numLanes="1" priority="-1" speed="13.90" to="2/7" />
    <edge from="2/8" id="2/8to2/9" numLanes="1" priority="-1" speed="13.90" to="2/9" />
    <edge from="2/8" id="2/8to3/8" numLanes="1" priority="-1" speed="13.90" to="3/8" />
    <edge from="2/9" id="2/9to1/9" numLanes="1" priority="-1" speed="13.90" to="1/9" />
    <edge from="2/9" id="2/9to2/8" numLanes="1" priority="-1" speed="13.90" to="2/8" />
    <edge from="2/9" id="2/9to3/9" numLanes="1" priority="-1" speed="13.90" to="3/9" />
    <edge from="3/0" id="3/0to2/0" numLanes="1" priority="-1" speed="13.90" to="2/0" />
    <edge from="3/0" id="3/0to3/1" numLanes="1" priority="-1" speed="13.90" to="3/1" />
    <edge from="3/0" id="3/0to4/0" numLanes="1" priority="-1" speed="13.90" to="4/0" />
    <edge from="3/1" id="3/1to2/1" numLanes="1" priority="-1" speed="13.90" to="2/1" />
    <edge from="3/1" id="3/1to3/0" numLanes="1" priority="-1" speed="13.90" to="3/0" />
    <edge from="3/1" id="3/1to3/2" numLanes="1" priority="-1" speed="13.90" to="3/2" />
    <edge from="3/1" id="3/1to4/1" numLanes="1" priority="-1" speed="13.90" to="4/1" />
    <edge from="3/2" id="3/2to2/2" numLanes="1" priority="-1" speed="13.90" to="2/2" />
    <edge from="3/2" id="3/2to3/1" numLanes="1" priority="-1" speed="13.90" to="3/1" />
    <edge from="3/2" id="3/2to3/3" numLanes="1" priority="-1" speed="13.90" to="3/3" />
    <edge from="3/2" id="3/2to4/2" numLanes="1" priority="-1" speed="13.90" to="4/2" />
    <edge from="3/3" id="3/3to2/3" numLanes="1" priority="-1" speed="13.90" to="2/3" />
    <edge from="3/3" id="3/3to3/2" numLanes="1" priority="-1" speed="13.90" to="3/2" />
    <edge from="3/3" id="3/3to3/4" numLanes="1" priority="-1" speed="13.90" to="3/4" />
    <edge from="3/3" id="3/3to4/3" numLanes="1" priority="-1" speed="13.90" to="4/3" />
    <edge from="3/4" id="3/4to2/4" numLanes="1" priority="-1" speed="13.90" to="2/4" />
    <edge from="3/4" id="3/4to3/3" numLanes="1" priority="-1" speed="13.90" to="3/3" />
    <edge from="3/4" id="3/4to3/5" numLanes="1" priority="-1" speed="13.90" to="3/5" />
    <edge from="3/4" id="3/4to4/4" numLanes="1" priority="-1" speed="13.90" to="4/4" />
    <edge from="3/5" id="3/5to2/5" numLanes="1" priority="-1" speed="13.90" to="2/5" />
    <edge from="3/5" id="3/5to3/4" numLanes="1" priority="-1" speed="13.90" to="3/4" />
    <edge from="3/5" id="3/5to3/6" numLanes="1" priority="-1" speed="13.90" to="3/6" />
    <edge from="3/5" id="3/5to4/5" numLanes="1" priority="-1" speed="13.90" to="4/5" />
    <edge from="3/6" id="3/6to2/6" numLanes="1" priority="-1" speed="13.90" to="2/6" />
    <edge from="3/6" id="3/6to3/5" numLanes="1" priority="-1" speed="13.90" to="3/5" />
    <edge from="3/6" id="3/6to3/7" numLanes="1" priority="-1" speed="13.90" to="3/7" />
    <edge from="3/6" id="3/6to4/6" numLanes="1" priority="-1" speed="13.90" to="4/6" />
    <edge from="3/7" id="3/7to2/7" numLanes="1" priority="-1" speed="13.90" to="2/7" />
    <edge from="3/7" id="3/7to3/6" numLanes="1" priority="-1" speed="13.90" to="3/6" />
    <edge from="3/7" id="3/7to3/8" numLanes="1" priority="-1" speed="13.90" to="3/8" />
    <edge from="3/7" id="3/7to4/7" numLanes="1" priority="-1" speed="13.90" to="4/7" />
    <edge from="3/8" id="3/8to2/8" numLanes="1" priority="-1" speed="13.90" to="2/8" />
    <edge from="3/8" id="3/8to3/7" numLanes="1" priority="-1" speed="13.90" to="3/7" />
    <edge from="3/8" id="3/8to3/9" numLanes="1" priority="-1" speed="13.90" to="3/9" />
    <edge from="3/8" id="3/8to4/8" numLanes="1" priority="-1" speed="13.90" to="4/8" />
    <edge from="3/9" id="3/9to2/9" numLanes="1" priority="-1" speed="13.90" to="2/9" />
    <edge from="3/9" id="3/9to3/8" numLanes="1" priority="-1" speed="13.90" to="3/8" />
    <edge from="3/9" id="3/9to4/9" numLanes="1" priority="-1" speed="13.90" to="4/9" />
    <edge from="4/0" id="4/0to3/0" numLanes="1" priority="-1" speed="13.90" to="3/0" />
    <edge from="4/0" id="4/0to4/1" numLanes="1" priority="-1" speed="13.90" to="4/1" />
    <edge from="4/0" id="4/0to5/0" numLanes="1" priority="-1" speed="13.90" to="5/0" />
    <edge from="4/1" id="4/1to3/1" numLanes="1" priority="-1" speed="13.90" to="3/1" />
    <edge from="4/1" id="4/1to4/0" numLanes="1" priority="-1" speed="13.90" to="4/0" />
    <edge from="4/1" id="4/1to4/2" numLanes="1" priority="-1" speed="13.90" to="4/2" />
    <edge from="4/1" id="4/1to5/1" numLanes="1" priority="-1" speed="13.90" to="5/1" />
    <edge from="4/2" id="4/2to3/2" numLanes="1" priority="-1" speed="13.90" to="3/2" />
    <edge from="4/2" id="4/2to4/1" numLanes="1" priority="-1" speed="13.90" to="4/1" />
    <edge from="4/2" id="4/2to4/3" numLanes="1" priority="-1" speed="13.90" to="4/3" />
    <edge from="4/2" id="4/2to5/2" numLanes="1" priority="-1" speed="13.90" to="5/2" />
    <edge from="4/3" id="4/3to3/3" numLanes="1" priority="-1" speed="13.90" to="3/3" />
    <edge from="4/3" id="4/3to4/2" numLanes="1" priority="-1" speed="13.90" to="4/2" />
    <edge from="4/3" id="4/3to4/4" numLanes="1" priority="-1" speed="13.90" to="4/4" />
    <edge from="4/3" id="4/3to5/3" numLanes="1" priority="-1" speed="13.90" to="5/3" />
    <edge from="4/4" id="4/4to3/4" numLanes="1" priority="-1" speed="13.90" to="3/4" />
    <edge from="4/4" id="4/4to4/3" numLanes="1" priority="-1" speed="13.90" to="4/3" />
    <edge from="4/4" id="4/4to4/5" numLanes="1" priority="-1" speed="13.90" to="4/5" />
    <edge from="4/4" id="4/4to5/4" numLanes="1" priority="-1" speed="13.90" to="5/4" />
    <edge from="4/5" id="4/5to3/5" numLanes="1" priority="-1" speed="13.90" to="3/5" />
    <edge from="4/5" id="4/5to4/4" numLanes="1" priority="-1" speed="13.90" to="4/4" />
    <edge from="4/5" id="4/5to4/6" numLanes="1" priority="-1" speed="13.90" to="4/6" />
    <edge from="4/5" id="4/5to5/5" numLanes="1" priority="-1" speed="13.90" to="5/5" />
    <edge from="4/6" id="4/6to3/6" numLanes="1" priority="-1" speed="13.90" to="3/6" />
    <edge from="4/6" id="4/6to4/5" numLanes="1" priority="-1" speed="13.90" to="4/5" />
    <edge from="4/6" id="4/6to4/7" numLanes="1" priority="-1" speed="13.90" to="4/7" />
    <edge from="4/6" id="4/6to5/6" numLanes="1" priority="-1" speed="13.90" to="5/6" />
    <edge from="4/7" id="4/7to3/7" numLanes="1" priority="-1" speed="13.90" to="3/7" />
    <edge from="4/7" id="4/7to4/6" numLanes="1" priority="-1" speed="13.90" to="4/6" />
    <edge from="4/7" id="4/7to4/8" numLanes="1" priority="-1" speed="13.90" to="4/8" />
    <edge from="4/7" id="4/7to5/7" numLanes="1" priority="-1" speed="13.90" to="5/7" />
    <edge from="4/8" id="4/8to3/8" numLanes="1" priority="-1" speed="13.90" to="3/8" />
    <edge from="4/8" id="4/8to4/7" numLanes="1" priority="-1" speed="13.90" to="4/7" />
    <edge from="4/8" id="4/8to4/9" numLanes="1" priority="-1" speed="13.90" to="4/9" />
    <edge from="4/8" id="4/8to5/8" numLanes="1" priority="-1" speed="13.90" to="5/8" />
    <edge from="4/9" id="4/9to3/9" numLanes="1" priority="-1" speed="13.90" to="3/9" />
    <edge from="4/9" id="4/9to4/8" numLanes="1" priority="-1" speed="13.90" to="4/8" />
    <edge from="4/9" id="4/9to5/9" numLanes="1" priority="-1" speed="13.90" to="5/9" />
    <edge from="5/0" id="5/0to4/0" numLanes="1" priority="-1" speed="13.90" to="4/0" />
    <edge from="5/0" id="5/0to5/1" numLanes="1" priority="-1" speed="13.90" to="5/1" />
    <edge from="5/0" id="5/0to6/0" numLanes="1" priority="-1" speed="13.90" to="6/0" />
    <edge from="5/1" id="5/1to4/1" numLanes="1" priority="-1" speed="13.90" to="4/1" />
    <edge from="5/1" id="5/1to5/0" numLanes="1" priority="-1" speed="13.90" to="5/0" />
    <edge from="5/1" id="5/1to5/2" numLanes="1" priority="-1" speed="13.90" to="5/2" />
    <edge from="5/1" id="5/1to6/1" numLanes="1" priority="-1" speed="13.90" to="6/1" />
    <edge from="5/2" id="5/2to4/2" numLanes="1" priority="-1" speed="13.90" to="4/2" />
    <edge from="5/2" id="5/2to5/1" numLanes="1" priority="-1" speed="13.90" to="5/1" />
    <edge from="5/2" id="5/2to5/3" numLanes="1" priority="-1" speed="13.90" to="5/3" />
    <edge from="5/2" id="5/2to6/2" numLanes="1" priority="-1" speed="13.90" to="6/2" />
    <edge from="5/3" id="5/3to4/3" numLanes="1" priority="-1" speed="13.90" to="4/3" />
    <edge from="5/3" id="5/3to5/2" numLanes="1" priority="-1" speed="13.90" to="5/2" />
    <edge from="5/3" id="5/3to5/4" numLanes="1" priority="-1" speed="13.90" to="5/4" />
    <edge from="5/3" id="5/3to6/3" numLanes="1" priority="-1" speed="13.90" to="6/3" />
    <edge from="5/4" id="5/4to4/4" numLanes="1" priority="-1" speed="13.90" to="4/4" />
    <edge from="5/4" id="5/4to5/3" numLanes="1" priority="-1" speed="13.90" to="5/3" />
    <edge from="5/4" id="5/4to5/5" numLanes="1" priority="-1" speed="13.90" to="5/5" />
    <edge from="5/4" id="5/4to6/4" numLanes="1" priority="-1" speed="13.90" to="6/4" />
    <edge from="5/5" id="5/5to4/5" numLanes="1" priority="-1" speed="13.90" to="4/5" />
    <edge from="5/5" id="5/5to5/4" numLanes="1" priority="-1" speed="13.90" to="5/4" />
    <edge from="5/5" id="5/5to5/6" numLanes="1" priority="-1" speed="13.90" to="5/6" />
    <edge from="5/5" id="5/5to6/5" numLanes="1" priority="-1" speed="13.90" to="6/5" />
    <edge from="5/6" id="5/6to4/6" numLanes="1" priority="-1" speed="13.90" to="4/6" />
    <edge from="5/6" id="5/6to5/5" numLanes="1" priority="-1" speed="13.90" to="5/5" />
    <edge from="5/6" id="5/6to5/7" numLanes="1" priority="-1" speed="13.90" to="5/7" />
    <edge from="5/6" id="5/6to6/6" numLanes="1" priority="-1" speed="13.90" to="6/6" />
    <edge from="5/7" id="5/7to4/7" numLanes="1" priority="-1" speed="13.90" to="4/7" />
    <edge from="5/7" id="5/7to5/6" numLanes="1" priority="-1" speed="13.90" to="5/6" />
    <edge from="5/7" id="5/7to5/8" numLanes="1" priority="-1" speed="13.90" to="5/8" />
    <edge from="5/7" id="5/7to6/7" numLanes="1" priority="-1" speed="13.90" to="6/7" />
    <edge from="5/8" id="5/8to4/8" numLanes="1" priority="-1" speed="13.90" to="4/8" />
    <edge from="5/8" id="5/8to5/7" numLanes="1" priority="-1" speed="13.90" to="5/7" />
    <edge from="5/8" id="5/8to5/9" numLanes="1" priority="-1" speed="13.90" to="5/9" />
    <edge from="5/8" id="5/8to6/8" numLanes="1" priority="-1" speed="13.90" to="6/8" />
    <edge from="5/9" id="5/9to4/9" numLanes="1" priority="-1" speed="13.90" to="4/9" />
    <edge from="5/9" id="5/9to5/8" numLanes="1" priority="-1" speed="13.90" to="5/8" />
    <edge from="5/9" id="5/9to6/9" numLanes="1" priority="-1" speed="13.90" to="6/9" />
    <edge from="6/0" id="6/0to5/0" numLanes="1" priority="-1" speed="13.90" to="5/0" />
    <edge from="6/0" id="6/0to6/1" numLanes="1" priority="-1" speed="13.90" to="6/1" />
    <edge from="6/0" id="6/0to7/0" numLanes="1" priority="-1" speed="13.90" to="7/0" />
    <edge from="6/1" id="6/1to5/1" numLanes="1" priority="-1" speed="13.90" to="5/1" />
    <edge from="6/1" id="6/1to6/0" numLanes="1" priority="-1" speed="13.90" to="6/0" />
    <edge from="6/1" id="6/1to6/2" numLanes="1" priority="-1" speed="13.90" to="6/2" />
    <edge from="6/1" id="6/1to7/1" numLanes="1" priority="-1" speed="13.90" to="7/1" />
    <edge from="6/2" id="6/2to5/2" numLanes="1" priority="-1" speed="13.90" to="5/2" />
    <edge from="6/2" id="6/2to6/1" numLanes="1" priority="-1" speed="13.90" to="6/1" />
    <edge from="6/2" id="6/2to6/3" numLanes="1" priority="-1" speed="13.90" to="6/3" />
    <edge from="6/2" id="6/2to7/2" numLanes="1" priority="-1" speed="13.90" to="7/2" />
    <edge from="6/3" id="6/3to5/3" numLanes="1" priority="-1" speed="13.90" to="5/3" />
    <edge from="6/3" id="6/3to6/2" numLanes="1" priority="-1" speed="13.90" to="6/2" />
    <edge from="6/3" id="6/3to6/4" numLanes="1" priority="-1" speed="13.90" to="6/4" />
    <edge from="6/3" id="6/3to7/3" numLanes="1" priority="-1" speed="13.90" to="7/3" />
    <edge from="6/4" id="6/4to5/4" numLanes="1" priority="-1" speed="13.90" to="5/4" />
    <edge from="6/4" id="6/4to6/3" numLanes="1" priority="-1" speed="13.90" to="6/3" />
    <edge from="6/4" id="6/4to6/5" numLanes="1" priority="-1" speed="13.90" to="6/5" />
    <edge from="6/4" id="6/4to7/4" numLanes="1" priority="-1" speed="13.90" to="7/4" />
    <edge from="6/5" id="6/5to5/5" numLanes="1" priority="-1" speed="13.90" to="5/5" />
    <edge from="6/5" id="6/5to6/4" numLanes="1" priority="-1" speed="13.90" to="6/4" />
    <edge from="6/5" id="6/5to6/6" numLanes="1" priority="-1" speed="13.90" to="6/6" />
    <edge from="6/5" id="6/5to7/5" numLanes="1" priority="-1" speed="13.90" to="7/5" />
    <edge from="6/6" id="6/6to5/6" numLanes="1" priority="-1" speed="13.90" to="5/6" />
    <edge from="6/6" id="6/6to6/5" numLanes="1" priority="-1" speed="13.90" to="6/5" />
    <edge from="6/6" id="6/6to6/7" numLanes="1" priority="-1" speed="13.90" to="6/7" />
    <edge from="6/6" id="6/6to7/6" numLanes="1" priority="-1" speed="13.90" to="7/6" />
    <edge from="6/7" id="6/7to5/7" numLanes="1" priority="-1" speed="13.90" to="5/7" />
    <edge from="6/7" id="6/7to6/6" numLanes="1" priority="-1" speed="13.90" to="6/6" />
    <edge from="6/7" id="6/7to6/8" numLanes="1" priority="-1" speed="13.90" to="6/8" />
    <edge from="6/7" id="6/7to7/7" numLanes="1" priority="-1" speed="13.90" to="7/7" />
    <edge from="6/8" id="6/8to5/8" numLanes="1" priority="-1" speed="13.90" to="5/8" />
    <edge from="6/8" id="6/8to6/7" numLanes="1" priority="-1" speed="13.90" to="6/7" />
    <edge from="6/8" id="6/8to6/9" numLanes="1" priority="-1" speed="13.90" to="6/9" />
    <edge from="6/8" id="6/8to7/8" numLanes="1" priority="-1" speed="13.90" to="7/8" />
    <edge from="6/9" id="6/9to5/9" numLanes="1" priority="-1" speed="13.90" to="5/9" />
    <edge from="6/9" id="6/9to6/8" numLanes="1" priority="-1" speed="13.90" to="6/8" />
    <edge from="6/9" id="6/9to7/9" numLanes="1" priority="-1" speed="13.90" to="7/9" />
    <edge from="7/0" id="7/0to6/0" numLanes="1" priority="-1" speed="13.90" to="6/0" />
    <edge from="7/0" id="7/0to7/1" numLanes="1" priority="-1" speed="13.90" to="7/1" />
    <edge from="7/0" id="7/0to8/0" numLanes="1" priority="-1" speed="13.90" to="8/0" />
    <edge from="7/1" id="7/1to6/1" numLanes="1" priority="-1" speed="13.90" to="6/1" />
    <edge from="7/1" id="7/1to7/0" numLanes="1" priority="-1" speed="13.90" to="7/0" />
    <edge from="7/1" id="7/1to7/2" numLanes="1" priority="-1" speed="13.90" to="7/2" />
    <edge from="7/1" id="7/1to8/1" numLanes="1" priority="-1" speed="13.90" to="8/1" />
    <edge from="7/2" id="7/2to6/2" numLanes="1" priority="-1" speed="13.90" to="6/2" />
    <edge from="7/2" id="7/2to7/1" numLanes="1" priority="-1" speed="13.90" to="7/1" />
    <edge from="7/2" id="7/2to7/3" numLanes="1" priority="-1" speed="13.90" to="7/3" />
    <edge from="7/2" id="7/2to8/2" numLanes="1" priority="-1" speed="13.90" to="8/2" />
    <edge from="7/3" id="7/3to6/3" numLanes="1" priority="-1" speed="13.90" to="6/3" />
    <edge from="7/3" id="7/3to7/2" numLanes="1" priority="-1" speed="13.90" to="7/2" />
    <edge from="7/3" id="7/3to7/4" numLanes="1" priority="-1" speed="13.90" to="7/4" />
    <edge from="7/3" id="7/3to8/3" numLanes="1" priority="-1" speed="13.90" to="8/3" />
    <edge from="7/4" id="7/4to6/4" numLanes="1" priority="-1" speed="13.90" to="6/4" />
    <edge from="7/4" id="7/4to7/3" numLanes="1" priority="-1" speed="13.90" to="7/3" />
    <edge from="7/4" id="7/4to7/5" numLanes="1" priority="-1" speed="13.90" to="7/5" />
    <edge from="7/4" id="7/4to8/4" numLanes="1" priority="-1" speed="13.90" to="8/4" />
    <edge from="7/5" id="7/5to6/5" numLanes="1" priority="-1" speed="13.90" to="6/5" />
    <edge from="7/5" id="7/5to7/4" numLanes="1" priority="-1" speed="13.90" to="7/4" />
    <edge from="7/5" id="7/5to7/6" numLanes="1" priority="-1" speed="13.90" to="7/6" />
    <edge from="7/5" id="7/5to8/5" numLanes="1" priority="-1" speed="13.90" to="8/5" />
    <edge from="7/6" id="7/6to6/6" numLanes="1" priority="-1" speed="13.90" to="6/6" />
    <edge from="7/6" id="7/6to7/5" numLanes="1" priority="-1" speed="13.90" to="7/5" />
    <edge from="7/6" id="7/6to7/7" numLanes="1" priority="-1" speed="13.90" to="7/7" />
    <edge from="7/6" id="7/6to8/6" numLanes="1" priority="-1" speed="13.90" to="8/6" />
    <edge from="7/7" id="7/7to6/7" numLanes="1" priority="-1" speed="13.90" to="6/7" />
    <edge from="7/7" id="7/7to7/6" numLanes="1" priority="-1" speed="13.90" to="7/6" />
    <edge from="7/7" id="7/7to7/8" numLanes="1" priority="-1" speed="13.90" to="7/8" />
    <edge from="7/7" id="7/7to8/7" numLanes="1" priority="-1" speed="13.90" to="8/7" />
    <edge from="7/8" id="7/8to6/8" numLanes="1" priority="-1" speed="13.90" to="6/8" />
    <edge from="7/8" id="7/8to7/7" numLanes="1" priority="-1" speed="13.90" to="7/7" />
    <edge from="7/8" id="7/8to7/9" numLanes="1" priority="-1" speed="13.90" to="7/9" />
    <edge from="7/8" id="7/8to8/8" numLanes="1" priority="-1" speed="13.90" to="8/8" />
    <edge from="7/9" id="7/9to6/9" numLanes="1" priority="-1" speed="13.90" to="6/9" />
    <edge from="7/9" id="7/9to7/8" numLanes="1" priority="-1" speed="13.90" to="7/8" />
    <edge from="7/9" id="7/9to8/9" numLanes="1" priority="-1" speed="13.90" to="8/9" />
    <edge from="8/0" id="8/0to7/0" numLanes="1" priority="-1" speed="13.90" to="7/0" />
    <edge from="8/0" id="8/0to8/1" numLanes="1" priority="-1" speed="13.90" to="8/1" />
    <edge from="8/0" id="8/0to9/0" numLanes="1" priority="-1" speed="13.90" to="9/0" />
    <edge from="8/1" id="8/1to7/1" numLanes="1" priority="-1" speed="13.90" to="7/1" />
    <edge from="8/1" id="8/1to8/0" numLanes="1" priority="-1" speed="13.90" to="8/0" />
    <edge from="8/1" id="8/1to8/2" numLanes="1" priority="-1" speed="13.90" to="8/2" />
    <edge from="8/1" id="8/1to9/1" numLanes="1" priority="-1" speed="13.90" to="9/1" />
    <edge from="8/2" id="8/2to7/2" numLanes="1" priority="-1" speed="13.90" to="7/2" />
    <edge from="8/2" id="8/2to8/1" numLanes="1" priority="-1" speed="13.90" to="8/1" />
    <edge from="8/2" id="8/2to8/3" numLanes="1" priority="-1" speed="13.90" to="8/3" />
    <edge from="8/2" id="8/2to9/2" numLanes="1" priority="-1" speed="13.90" to="9/2" />
    <edge from="8/3" id="8/3to7/3" numLanes="1" priority="-1" speed="13.90" to="7/3" />
    <edge from="8/3" id="8/3to8/2" numLanes="1" priority="-1" speed="13.90" to="8/2" />
    <edge from="8/3" id="8/3to8/4" numLanes="1" priority="-1" speed="13.90" to="8/4" />
    <edge from="8/3" id="8/3to9/3" numLanes="1" priority="-1" speed="13.90" to="9/3" />
    <edge from="8/4" id="8/4to7/4" numLanes="1" priority="-1" speed="13.90" to="7/4" />
    <edge from="8/4" id="8/4to8/3" numLanes="1" priority="-1" speed="13.90" to="8/3" />
    <edge from="8/4" id="8/4to8/5" numLanes="1" priority="-1" speed="13.90" to="8/5" />
    <edge from="8/4" id="8/4to9/4" numLanes="1" priority="-1" speed="13.90" to="9/4" />
    <edge from="8/5" id="8/5to7/5" numLanes="1" priority="-1" speed="13.90" to="7/5" />
    <edge from="8/5" id="8/5to8/4" numLanes="1" priority="-1" speed="13.90" to="8/4" />
    <edge from="8/5" id="8/5to8/6" numLanes="1" priority="-1" speed="13.90" to="8/6" />
    <edge from="8/5" id="8/5to9/5" numLanes="1" priority="-1" speed="13.90" to="9/5" />
    <edge from="8/6" id="8/6to7/6" numLanes="1" priority="-1" speed="13.90" to="7/6" />
    <edge from="8/6" id="8/6to8/5" numLanes="1" priority="-1" speed="13.90" to="8/5" />
    <edge from="8/6" id="8/6to8/7" numLanes="1" priority="-1" speed="13.90" to="8/7" />
    <edge from="8/6" id="8/6to9/6" numLanes="1" priority="-1" speed="13.90" to="9/6" />
    <edge from="8/7" id="8/7to7/7" numLanes="1" priority="-1" speed="13.90" to="7/7" />
    <edge from="8/7" id="8/7to8/6" numLanes="1" priority="-1" speed="13.90" to="8/6" />
    <edge from="8/7" id="8/7to8/8" numLanes="1" priority="-1" speed="13.90" to="8/8" />
    <edge from="8/7" id="8/7to9/7" numLanes="1" priority="-1" speed="13.90" to="9/7" />
    <edge from="8/8" id="8/8to7/8" numLanes="1" priority="-1" speed="13.90" to="7/8" />
    <edge from="8/8" id="8/8to8/7" numLanes="1" priority="-1" speed="13.90" to="8/7" />
    <edge from="8/8" id="8/8to8/9" numLanes="1" priority="-1" speed="13.90" to="8/9" />
    <edge from="8/8" id="8/8to9/8" numLanes="1" priority="-1" speed="13.90" to="9/8" />
    <edge from="8/9" id="8/9to7/9" numLanes="1" priority="-1" speed="13.90" to="7/9" />
    <edge from="8/9" id="8/9to8/8" numLanes="1" priority="-1" speed="13.90" to="8/8" />
    <edge from="8/9" id="8/9to9/9" numLanes="1" priority="-1" speed="13.90" to="9/9" />
    <edge from="9/0" id="9/0to8/0" numLanes="1" priority="-1" speed="13.90" to="8/0" />
    <edge from="9/0" id="9/0to9/1" numLanes="1" priority="-1" speed="13.90" to="9/1" />
    <edge from="9/1" id="9/1to8/1" numLanes="1" priority="-1" speed="13.90" to="8/1" />
    <edge from="9/1" id="9/1to9/0" numLanes="1" priority="-1" speed="13.90" to="9/0" />
    <edge from="9/1" id="9/1to9/2" numLanes="1" priority="-1" speed="13.90" to="9/2" />
    <edge from="9/2" id="9/2to8/2" numLanes="1" priority="-1" speed="13.90" to="8/2" />
    <edge from="9/2" id="9/2to9/1" numLanes="1" priority="-1" speed="13.90" to="9/1" />