<nodes xmlns:xsi="http://www.w3.org/2001/XMLSchema-instance" version="0.13" xsi:noNamespaceSchemaLocation="http://sumo.dlr.de/xsd/nodes_file.xsd">
    <node id="0/0" type="priority" x="0.00" y="0.00" />
    <node id="0/1" type="priority" x="0.00" y="400.00" />
    <node id="0/2" type="priority" x="0.00" y="800.00" />
    <node id="0/3" type="priority" x="0.00" y="1200.00" />
    <node id="0/4" type="priority" x="0.00" y="1600.00" />
    <node id="0/5" type="priority" x="0.00" y="2000.00" />
    <node id="0/6" type="priority" x="0.00" y="2400.00" />
    <node id="0/7" type="priority" x="0.00" y="2800.00" />
    <node id="0/8" type="priority" x="0.00" y="3200.00" />
    <node id="0/9" type="priority" x="0.00" y="3600.00" />
    <node id="1/0" type="priority" x="400.00" y="0.00" />
    <node id="1/1" type="priority" x="400.00" y="400.00" />
    <node id="1/2" type="priority" x="400.00" y="800.00" />
    <node id="1/3" type="priority" x="400.00" y="1200.00" />
    <node id="1/4" type="priority" x="400.00" y="1600.00" />
    <node id="1/5" type="priority" x="400.00" y="2000.00" />
    <node id="1/6" type="priority" x="400.00" y="2400.00" />
    <node id="1/7" type="priority" x="400.00" y="2800.00" />
    <node id="1/8" type="priority" x="400.00" y="3200.00" />
    <node id="1/9" type="priority" x="400.00" y="3600.00" />
    <node id="2/0" type="priority" x="800.00" y="0.00" />
    <node id="2/1" type="priority" x="800.00" y="400.00" />
    <node id="2/2" type="priority" x="800.00" y="800.00" />
    <node id="2/3" type="priority" x="800.00" y="1200.00" />
    <node id="2/4" type="priority" x="800.00" y="1600.00" />
    <node id="2/5" type="priority" x="800.00" y="2000.00" />
    <node id="2/6" type="priority" x="800.00" y="2400.00" />
    <node id="2/7" type="priority" x="800.00" y="2800.00" />
    <node id="2/8" type="priority" x="800.00" y="3200.00" />
    <node id="2/9" type="priority" x="800.00" y="3600.00" />
    <node id="3/0" type="priority" x="1200.00" y="0.00" />
    <node id="3/1" type="priority" x="1200.00" y="400.00" />
    <node id="3/2" type="priority" x="1200.00" y="800.00" />
    <node id="3/3" type="priority" x="1200.00" y="1200.00" />
    <node id="3/4" type="priority" x="1200.00" y="1600.00" />
    <node id="3/5" type="priority" x="1200.00" y="2000.00" />
    <node id="3/6" type="priority" x="1200.00" y="2400.00" />
    <node id="3/7" type="priority" x="1200.00" y="2800.00" />
    <node id="3/8" type="priority" x="1200.00" y="3200.00" />
    <node id="3/9" type="priority" x="1200.00" y="3600.00" />
    <node id="4/0" type="priority" x="1600.00" y="0.00" />
    <node id="4/1" type="priority" x="1600.00" y="400.00" />
    <node id="4/2" type="priority" x="1600.00" y="800.00" />
    <node id="4/3" type="priority" x="1600.00" y="1200.00" />
    <node id="4/4" type="priority" x="1600.00" y="1600.00" />
    <node id="4/5" type="priority" x="1600.00" y="2000.00" />
    <node id="4/6" type="priority" x="1600.00" y="2400.00" />
    <node id="4/7" type="priority" x="1600.00" y="2800.00" />
    <node id="4/8" type="priority" x="1600.00" y="3200.00" />
    <node id="4/9" type="priority" x="1600.00" y="3600.00" />
    <node id="5/0" type="priority" x="2000.00" y="0.00" />
    <node id="5/1" type="priority" x="2000.00" y="400.00" />
    <node id="5/2" type="priority" x="2000.00" y="800.00" />
    <node id="5/3" type="priority" x="2000.00" y="1200.00" />
    <node id="5/4" type="priority" x="2000.00" y="1600.00" />
    <node id="5/5" type="priority" x="2000.00" y="2000.00" />
    <node id="5/6" type="priority" x="2000.00" y="2400.00" />
    <node id="5/7" type="priority" x="2000.00" y="2800.00" />
    <node id="5/8" type="priority" x="2000.00" y="3200.00" />
    <node id="5/9" type="priority" x="2000.00" y="3600.00" />
    <node id="6/0" type="priority" x="2400.00" y="0.00" />
    <node id="6/1" type="priority" x="2400.00" y="400.00" />
    <node id="6/2" type="priority" x="2400.00" y="800.00" />
    <node id="6/3" type="priority" x="2400.00" y="1200.00" />
    <node id="6/4" type="priority" x="2400.00" y="1600.00" />
    <node id="6/5" type="priority" x="2400.00" y="2000.00" />
    <node id="6/6" type="priority" x="2400.00" y="2400.00" />
    <node id="6/7" type="priority" x="2400.00" y="2800.00" />
    <node id="6/8" type="priority" x="2400.00" y="3200.00" />
    <node id="6/9" type="priority" x="2400.00" y="3600.00" />
    <node id="7/0" type="priority" x="2800.00" y="0.00" />
    <node id="7/1" type="priority" x="2800.00" y="400.00" />
    <node id="7/2" type="priority" x="2800.00" y="800.00" />
    <node id="7/3" type="priority" x="2800.00" y="1200.00" />
    <node id="7/4" type="priority" x="2800.00" y="1600.00" />
    <node id="7/5" type="priority" x="2800.00" y="2000.00" />
    <node id="7/6" type="priority" x="2800.00" y="2400.00" />
    <node id="7/7" type="priority" x="2800.00" y="2800.00" />
    <node id="7/8" type="priority" x="2800.00" y="3200.00" />
    <node id="7/9" type="priority" x="2800.00" y="3600.00" />
    <node id="8/0" type="priority" x="3200.00" y="0.00" />
    <node id="8/1" type="priority" x="3200.00" y="400.00" />
    <node id="8/2" type="priority" x="3200.00" y="800.00" />
    <node id="8/3" type="priority" x="3200.00" y="1200.00" />
    <node id="8/4" type="priority" x="3200.00" y="1600.00" />
    <node id="8/5" type="priority" x="3200.00" y="2000.00" />
    <node id="8/6" type="priority" x="3200.00" y="2400.00" />
    <node id="8/7" type="priority" x="3200.00" y="2800.00" />
    <node id="8/8" type="priority" x="3200.00" y="3200.00" />
    <node id="8/9" type="priority" x="3200.00" y="3600.00" />
    <node id="9/0" type="priority" x="3600.00" y="0.00" />
    <node id="9/1" type="priority" x="3600.00" y="400.00" />
    <node id="9/2" type="priority" x="3600.00" y="800.00" />
    <node id="9/3" type="priority" x="3600.00" y="1200.00" />
    <node id="9/4" type="priority" x="3600.00" y="1600.00" />
    <node id="9/5" type="priority" x="3600.00" y="2000.00" />
    <node id="9/6" type="priority" x="3600.00" y="2400.00" />
    <node id="9/7" type="priority" x="3600.00" y="2800.00" />
    <node id="9/8" type="priority" x="3600.00" y="3200.00" />
    <node id="9/9" type="priority" x="3600.00" y="3600.00" />
<node id="0/0to0/1_parking_1_1" type="priority" x="3.06161699787e-15" y="50.0" /><node id="0/0to0/1_parking_2_1" type="priority" x="-7.07106781187" y="57.0710678119" /><node id="0/0to0/1_parking_3_1" type="priority" x="-7.07106781187" y="207.071067812" /><node id="0/0to0/1_parking_4_1" type="priority" x="1.24344978758e-14" y="214.142135624" /><node id="0/0to1/0_parking_1_1" type="priority" x="50.0" y="0.0" /><node id="0/0to1/0_parking_2_1" type="priority" x="57.0710678119" y="7.07106781187" /><node id="0/0to1/0_parking_3_1" type="priority" x="207.071067812" y="7.07106781187" /><node id="0/0to1/0_parking_4_1" type="priority" x="214.142135624" y="0.0" /><node id="0/1to0/0_parking_1_1" type="priority" x="3.06161699787e-15" y="350.0" /><node id="0/1to0/0_parking_2_1" type="priority" x="7.07106781187" y="342.928932188" /><node id="0/1to0/0_parking_3_1" type="priority" x="7.07106781187" y="192.928932188" /><node id="0/1to0/0_parking_4_1" type="priority" x="1.24344978758e-14" y="185.857864376" /><node id="0/1to0/2_parking_1_1" type="priority" x="3.06161699787e-15" y="450.0" /><node id="0/1to0/2_parking_2_1" type="priority" x="-7.07106781187" y="457.071067812" /><node id="0/1to0/2_parking_3_1" type="priority" x="-7.07106781187" y="607.071067812" /><node id="0/1to0/2_parking_4_1" type="priority" x="1.24344978758e-14" y="614.142135624" /><node id="0/1to1/1_parking_1_1" type="priority" x="50.0" y="400.0" /><node id="0/1to1/1_parking_2_1" type="priority" x="57.0710678119" y="407.071067812" /><node id="0/1to1/1_parking_3_1" type="priority" x="207.071067812" y="407.071067812" /><node id="0/1to1/1_parking_4_1" type="priority" x="214.142135624" y="400.0" /><node id="0/2to0/1_parking_1_1" type="priority" x="3.06161699787e-15" y="750.0" /><node id="0/2to0/1_parking_2_1" type="priority" x="7.07106781187" y="742.928932188" /><node id="0/2to0/1_parking_3_1" type="priority" x="7.07106781187" y="592.928932188" /><node id="0/2to0/1_parking_4_1" type="priority" x="1.24344978758e-14" y="585.857864376" /><node id="0/2to0/3_parking_1_1" type="priority" x="3.06161699787e-15" y="850.0" /><node id="0/2to0/3_parking_2_1" type="priority" x="-7.07106781187" y="857.071067812" /><node id="0/2to0/3_parking_3_1" type="priority" x="-7.07106781187" y="1007.07106781" /><node id="0/2to0/3_parking_4_1" type="priority" x="1.24344978758e-14" y="1014.14213562" /><node id="0/2to1/2_parking_1_1" type="priority" x="50.0" y="800.0" /><node id="0/2to1/2_parking_2_1" type="priority" x="57.0710678119" y="807.071067812" /><node id="0/2to1/2_parking_3_1" type="priority" x="207.071067812" y="807.071067812" /><node id="0/2to1/2_parking_4_1" type="priority" x="214.142135624" y="800.0" /><node id="0/3to0/2_parking_1_1" type="priority" x="3.06161699787e-15" y="1150.0" /><node id="0/3to0/2_parking_2_1" type="priority" x="7.07106781187" y="1142.92893219" /><node id="0/3to0/2_parking_3_1" type="priority" x="7.07106781187" y="992.928932188" /><node id="0/3to0/2_parking_4_1" type="priority" x="1.24344978758e-14" y="985.857864376" /><node id="0/3to0/4_parking_1_1" type="priority" x="3.06161699787e-15" y="1250.0" /><node id="0/3to0/4_parking_2_1" type="priority" x="-7.07106781187" y="1257.07106781" /><node id="0/3to0/4_parking_3_1" type="priority" x="-7.07106781187" y="1407.07106781" /><node id="0/3to0/4_parking_4_1" type="priority" x="1.24344978758e-14" y="1414.14213562" /><node id="0/3to1/3_parking_1_1" type="priority" x="50.0" y="1200.0" /><node id="0/3to1/3_parking_2_1" type="priority" x="57.0710678119" y="1207.07106781" /><node id="0/3to1/3_parking_3_1" type="priority" x="207.071067812" y="1207.07106781" /><node id="0/3to1/3_parking_4_1" type="priority" x="214.142135624" y="1200.0" /><node id="0/4to0/3_parking_1_1" type="priority" x="3.06161699787e-15" y="1550.0" /><node id="0/4to0/3_parking_2_1" type="priority" x="7.07106781187" y="1542.92893219" /><node id="0/4to0/3_parking_3_1" type="priority" x="7.07106781187" y="1392.92893219" /><node id="0/4to0/3_parking_4_1" type="priority" x="1.24344978758e-14" y="1385.85786438" /><node id="0/4to0/5_parking_1_1" type="priority" x="3.06161699787e-15" y="1650.0" /><node id="0/4to0/5_parking_2_1" type="priority" x="-7.07106781187" y="1657.07106781" /><node id="0/4to0/5_parking_3_1" type="priority" x="-7.07106781187" y="1807.07106781" /><node id="0/4to0/5_parking_4_1" type="priority" x="1.24344978758e-14" y="1814.14213562" /><node id="0/4to1/4_parking_1_1" type="priority" x="50.0" y="1600.0" /><node id="0/4to1/4_parking_2_1" type="priority" x="57.0710678119" y="1607.07106781" /><node id="0/4to1/4_parking_3_1" type="priority" x="207.071067812" y="1607.07106781" /><node id="0/4to1/4_parking_4_1" type="priority" x="214.142135624" y="1600.0" /><node id="0/5to0/4_parking_1_1" type="priority" x="3.06161699787e-15" y="1950.0" /><node id="0/5to0/4_parking_2_1" type="priority" x="7.07106781187" y="1942.92893219" /><node id="0/5to0/4_parking_3_1" type="priority" x="7.07106781187" y="1792.92893219" /><node id="0/5to0/4_parking_4_1" type="priority" x="1.24344978758e-14" y="1785.85786438" /><node id="0/5to0/6_parking_1_1" type="priority" x="3.06161699787e-15" y="2050.0" /><node id="0/5to0/6_parking_2_1" type="priority" x="-7.07106781187" y="2057.07106781" /><node id="0/5to0/6_parking_3_1" type="priority" x="-7.07106781187" y="2207.07106781" /><node id="0/5to0/6_parking_4_1" type="priority" x="1.24344978758e-14" y="2214.14213562" /><node id="0/5to1/5_parking_1_1" type="priority" x="50.0" y="2000.0" /><node id="0/5to1/5_parking_2_1" type="priority" x="57.0710678119" y="2007.07106781" /><node id="0/5to1/5_parking_3_1" type="priority" x="207.071067812" y="2007.07106781" /><node id="0/5to1/5_parking_4_1" type="priority" x="214.142135624" y="2000.0" /><node id="0/6to0/5_parking_1_1" type="priority" x="3.06161699787e-15" y="2350.0" /><node id="0/6to0/5_parking_2_1" type="priority" x="7.07106781187" y="2342.92893219" /><node id="0/6to0/5_parking_3_1" type="priority" x="7.07106781187" y="2192.92893219" /><node id="0/6to0/5_parking_4_1" type="priority" x="1.24344978758e-14" y="2185.85786438" /><node id="0/6to0/7_parking_1_1" type="priority" x="3.06161699787e-15" y="2450.0" /><node id="0/6to0/7_parking_2_1" type="priority" x="-7.07106781187" y="2457.07106781" /><node id="0/6to0/7_parking_3_1" type="priority" x="-7.07106781187" y="2607.07106781" /><node id="0/6to0/7_parking_4_1" type="priority" x="1.24344978758e-14" y="2614.14213562" /><node id="0/6to1/6_parking_1_1" type="priority" x="50.0" y="2400.0" /><node id="0/6to1/6_parking_2_1" type="priority" x="57.0710678119" y="2407.07106781" /><node id="0/6to1/6_parking_3_1" type="priority" x="207.071067812" y="2407.07106781" /><node id="0/6to1/6_parking_4_1" type="priority" x="214.142135624" y="2400.0" /><node id="0/7to0/6_parking_1_1" type="priority" x="3.06161699787e-15" y="2750.0" /><node id="0/7to0/6_parking_2_1" type="priority" x="7.07106781187" y="2742.92893219" /><node id="0/7to0/6_parking_3_1" type="priority" x="7.07106781187" y="2592.92893219" /><node id="0/7to0/6_parking_4_1" type="priority" x="1.24344978758e-14" y="2585.85786438" /><node id="0/7to0/8_parking_1_1" type="priority" x="3.06161699787e-15" y="2850.0" /><node id="0/7to0/8_parking_2_1" type="priority" x="-7.07106781187" y="2857.07106781" /><node id="0/7to0/8_parking_3_1" type="priority" x="-7.07106781187" y="3007.07106781" /><node id="0/7to0/8_parking_4_1" type="priority" x="1.24344978758e-14" y="3014.14213562" /><node id="0/7to1/7_parking_1_1" type="priority" x="50.0" y="2800.0" /><node id="0/7to1/7_parking_2_1" type="priority" x="57.0710678119" y="2807.07106781" /><node id="0/7to1/7_parking_3_1" type="priority" x="207.071067812" y="2807.07106781" /><node id="0/7to1/7_parking_4_1" type="priority" x="214.142135624" y="2800.0" /><node id="0/8to0/7_parking_1_1" type="priority" x="3.06161699787e-15" y="3150.0" /><node id="0/8to0/7_parking_2_1" type="priority" x="7.07106781187" y="3142.92893219" /><node id="0/8to0/7_parking_3_1" type="priority" x="7.07106781187" y="2992.92893219" /><node id="0/8to0/7_parking_4_1" type="priority" x="1.24344978758e-14" y="2985.85786438" /><node id="0/8to0/9_parking_1_1" type="priority" x="3.06161699787e-15" y="3250.0" /><node id="0/8to0/9_parking_2_1" type="priority" x="-7.07106781187" y="3257.07106781" /><node id="0/8to0/9_parking_3_1" type="priority" x="-7.07106781187" y="3407.07106781" /><node id="0/8to0/9_parking_4_1" type="priority" x="1.24344978758e-14" y="3414.14213562" /><node id="0/8to1/8_parking_1_1" type="priority" x="50.0" y="3200.0" /><node id="0/8to1/8_parking_2_1" type="priority" x="57.0710678119" y="3207.07106781" /><node id="0/8to1/8_parking_3_1" type="priority" x="207.071067812" y="3207.07106781" /><node id="0/8to1/8_parking_4_1" type="priority" x="214.142135624" y="3200.0" /><node id="0/9to0/8_parking_1_1" type="priority" x="3.06161699787e-15" y="3550.0" /><node id="0/9to0/8_parking_2_1" type="priority" x="7.07106781187" y="3542.92893219" /><node id="0/9to0/8_parking_3_1" type="priority" x="7.07106781187" y="3392.92893219" /><node id="0/9to0/8_parking_4_1" type="priority" x="1.24344978758e-14" y="3385.85786438" /><node id="0/9to1/9_parking_1_1" type="priority" x="50.0" y="3600.0" /><node id="0/9to1/9_parking_2_1" type="priority" x="57.0710678119" y="3607.07106781" /><node id="0/9to1/9_parking_3_1" type="priority" x="207.071067812" y="3607.07106781" /><node id="0/9to1/9_parking_4_1" type="priority" x="214.142135624" y="3600.0" /><node id="1/0to0/0_parking_1_1" type="priority" x="350.0" y="6.12323399574e-15" /><node id="1/0to0/0_parking_2_1" type="priority" x="342.928932188" y="-7.07106781187" /><node id="1/0to0/0_parking_3_1" type="priority" x="192.928932188" y="-7.07106781187" /><node id="1/0to0/0_parking_4_1" type="priority" x="185.857864376" y="2.57571741713e-14" /><node id="1/0to1/1_parking_1_1" type="priority" x="400.0" y="50.0" /><node id="1/0to1/1_parking_2_1" type="priority" x="392.928932188" y="57.0710678119" /><node id="1/0to1/1_parking_3_1" type="priority" x="392.928932188" y="207.071067812" /><node id="1/0to1/1_parking_4_1" type="priority" x="400.0" y="214.142135624" /><node id="1/0to2/0_parking_1_1" type="priority" x="450.0" y="0.0" /><node id="1/0to2/0_parking_2_1" type="priority" x="457.071067812" y="7.07106781187" /><node id="1/0to2/0_parking_3_1" type="priority" x="607.071067812" y="7.07106781187" /><node id="1/0to2/0_parking_4_1" type="priority" x="614.142135624" y="0.0" /><node id="1/1to0/1_parking_1_1" type="priority" x="350.0" y="400.0" /><node id="1/1to0/1_parking_2_1" type="priority" x="342.928932188" y="392.928932188" /><node id="1/1to0/1_parking_3_1" type="priority" x="192.928932188" y="392.928932188" /><node id="1/1to0/1_parking_4_1" type="priority" x="185.857864376" y="400.0" /><node id="1/1to1/0_parking_1_1" type="priority" x="400.0" y="350.0" /><node id="1/1to1/0_parking_2_1" type="priority" x="407.071067812" y="342.928932188" /><node id="1/1to1/0_parking_3_1" type="priority" x="407.071067812" y="192.928932188" /><node id="1/1to1/0_parking_4_1" type="priority" x="400.0" y="185.857864376" /><node id="1/1to1/2_parking_1_1" type="priority" x="400.0" y="450.0" /><node id="1/1to1/2_parking_2_1" type="priority" x="392.928932188" y="457.071067812" /><node id="1/1to1/2_parking_3_1" type="priority" x="392.928932188" y="607.071067812" /><node id="1/1to1/2_parking_4_1" type="priority" x="400.0" y="614.142135624" /><node id="1/1to2/1_parking_1_1" type="priority" x="450.0" y="400.0" /><node id="1/1to2/1_parking_2_1" type="priority" x="457.071067812" y="407.071067812" /><node id="1/1to2/1_parking_3_1" type="priority" x="607.071067812" y="407.071067812" /><node id="1/1to2/1_parking_4_1" type="priority" x="614.142135624" y="400.0" /><node id="1/2to0/2_parking_1_1" type="priority" x="350.0" y="800.0" /><node id="1/2to0/2_parking_2_1" type="priority" x="342.928932188" y="792.928932188" /><node id="1/2to0/2_parking_3_1" type="priority" x="192.928932188" y="792.928932188" /><node id="1/2to0/2_parking_4_1" type="priority" x="185.857864376" y="800.0" /><node id="1/2to1/1_parking_1_1" type="priority" x="400.0" y="750.0" /><node id="1/2to1/1_parking_2_1" type="priority" x="407.071067812" y="742.928932188" /><node id="1/2to1/1_parking_3_1" type="priority" x="407.071067812" y="592.928932188" /><node id="1/2to1/1_parking_4_1" type="priority" x="400.0" y="585.857864376" /><node id="1/2to1/3_parking_1_1" type="priority" x="400.0" y="850.0" /><node id="1/2to1/3_parking_2_1" type="priority" x="392.928932188" y="857.071067812" /><node id="1/2to1/3_parking_3_1" type="priority" x="392.928932188" y="1007.07106781" /><node id="1/2to1/3_parking_4_1" type="priority" x="400.0" y="1014.14213562" /><node id="1/2to2/2_parking_1_1" type="priority" x="450.0" y="800.0" /><node id="1/2to2/2_parking_2_1" type="priority" x="457.071067812" y="807.071067812" /><node id="1/2to2/2_parking_3_1" type="priority" x="607.071067812" y="807.071067812" /><node id="1/2to2/2_parking_4_1" type="priority" x="614.142135624" y="800.0" /><node id="1/3to0/3_parking_1_1" type="priority" x="350.0" y="1200.0" /><node id="1/3to0/3_parking_2_1" type="priority" x="342.928932188" y="1192.92893219" /><node id="1/3to0/3_parking_3_1" type="priority" x="192.928932188" y="1192.92893219" /><node id="1/3to0/3_parking_4_1" type="priority" x="185.857864376" y="1200.0" /><node id="1/3to1/2_parking_1_1" type="priority" x="400.0" y="1150.0" /><node id="1/3to1/2_parking_2_1" type="priority" x="407.071067812" y="1142.92893219" /><node id="1/3to1/2_parking_3_1" type="priority" x="407.071067812" y="992.928932188" /><node id="1/3to1/2_parking_4_1" type="priority" x="400.0" y="985.857864376" /><node id="1/3to1/4_parking_1_1" type="priority" x="400.0" y="1250.0" /><node id="1/3to1/4_parking_2_1" type="priority" x="392.928932188" y="1257.07106781" /><node id="1/3to1/4_parking_3_1" type="priority" x="392.928932188" y="1407.07106781" /><node id="1/3to1/4_parking_4_1" type="priority" x="400.0" y="1414.14213562" /><node id="1/3to2/3_parking_1_1" type="priority" x="450.0" y="1200.0" /><node id="1/3to2/3_parking_2_1" type="priority" x="457.071067812" y="1207.07106781" /><node id="1/3to2/3_parking_3_1" type="priority" x="607.071067812" y="1207.07106781" /><node id="1/3to2/3_parking_4_1" type="priority" x="614.142135624" y="1200.0" /><node id="1/4to0/4_parking_1_1" type="priority" x="350.0" y="1600.0" /><node id="1/4to0/4_parking_2_1" type="priority" x="342.928932188" y="1592.92893219" /><node id="1/4to0/4_parking_3_1" type="priority" x="192.928932188" y="1592.92893219" /><node id="1/4to0/4_parking_4_1" type="priority" x="185.857864376" y="1600.0" /><node id="1/4to1/3_parking_1_1" type="priority" x="400.0" y="1550.0" /><node id="1/4to1/3_parking_2_1" type="priority" x="407.071067812" y="1542.92893219" /><node id="1/4to1/3_parking_3_1" type="priority" x="407.071067812" y="1392.92893219" /><node id="1/4to1/3_parking_4_1" type="priority" x="400.0" y="1385.85786438" /><node id="1/4to1/5_parking_1_1" type="priority" x="400.0" y="1650.0" /><node id="1/4to1/5_parking_2_1" type="priority" x="392.928932188" y="1657.07106781" /><node id="1/4to1/5_parking_3_1" type="priority" x="392.928932188" y="1807.07106781" /><node id="1/4to1/5_parking_4_1" type="priority" x="400.0" y="1814.14213562" /><node id="1/4to2/4_parking_1_1" type="priority" x="450.0" y="1600.0" /><node id="1/4to2/4_parking_2_1" type="priority" x="457.071067812" y="1607.07106781" /><node id="1/4to2/4_parking_3_1" type="priority" x="607.071067812" y="1607.07106781" /><node id="1/4to2/4_parking_4_1" type="priority" x="614.142135624" y="1600.0" /><node id="1/5to0/5_parking_1_1" type="priority" x="350.0" y="2000.0" /><node id="1/5to0/5_parking_2_1" type="priority" x="342.928932188" y="1992.92893219" /><node id="1/5to0/5_parking_3_1" type="priority" x="192.928932188" y="1992.92893219" /><node id="1/5to0/5_parking_4_1" type="priority" x="185.857864376" y="2000.0" /><node id="1/5to1/4_parking_1_1" type="priority" x="400.0" y="1950.0" /><node id="1/5to1/4_parking_2_1" type="priority" x="407.071067812" y="1942.92893219" /><node id="1/5to1/4_parking_3_1" type="priority" x="407.071067812" y="1792.92893219" /><node id="1/5to1/4_parking_4_1" type="priority" x="400.0" y="1785.85786438" /><node id="1/5to1/6_parking_1_1" type="priority" x="400.0" y="2050.0" /><node id="1/5to1/6_parking_2_1" type="priority" x="392.928932188" y="2057.07106781" /><node id="1/5to1/6_parking_3_1" type="priority" x="392.928932188" y="2207.07106781" /><node id="1/5to1/6_parking_4_1" type="priority" x="400.0" y="2214.14213562" /><node id="1/5to2/5_parking_1_1" type="priority" x="450.0" y="2000.0" /><node id="1/5to2/5_parking_2_1" type="priority" x="457.071067812" y="2007.07106781" /><node id="1/5to2/5_parking_3_1" type="priority" x="607.071067812" y="2007.07106781" /><node id="1/5to2/5_parking_4_1" type="priority" x="614.142135624" y="2000.0" /><node id="1/6to0/6_parking_1_1" type="priority" x="350.0" y="2400.0" /><node id="1/6to0/6_parking_2_1" type="priority" x="342.928932188" y="2392.92893219" /><node id="1/6to0/6_parking_3_1" type="priority" x="192.928932188" y="2392.92893219" /><node id="1/6to0/6_parking_4_1" type="priority" x="185.857864376" y="2400.0" /><node id="1/6to1/5_parking_1_1" type="priority" x="400.0" y="2350.0" /><node id="1/6to1/5_parking_2_1" type="priority" x="407.071067812" y="2342.92893219" /><node id="1/6to1/5_parking_3_1" type="priority" x="407.071067812" y="2192.92893219" /><node id="1/6to1/5_parking_4_1" type="priority" x="400.0" y="2185.85786438" /><node id="1/6to1/7_parking_1_1" type="priority" x="400.0" y="2450.0" /><node id="1/6to1/7_parking_2_1" type="priority" x="392.928932188" y="2457.07106781" /><node id="1/6to1/7_parking_3_1" type="priority" x="392.928932188" y="2607.07106781" /><node id="1/6to1/7_parking_4_1" type="priority" x="400.0" y="2614.14213562" /><node id="1/6to2/6_parking_1_1" type="priority" x="450.0" y="2400.0" /><node id="1/6to2/6_parking_2_1" type="priority" x="457.071067812" y="2407.07106781" /><node id="1/6to2/6_parking_3_1" type="priority" x="607.071067812" y="2407.07106781" /><node id="1/6to2/6_parking_4_1" type="priority" x="614.142135624" y="2400.0" /><node id="1/7to0/7_parking_1_1" type="priority" x="350.0" y="2800.0" /><node id="1/7to0/7_parking_2_1" type="priority" x="342.928932188" y="2792.92893219" /><node id="1/7to0/7_parking_3_1" type="priority" x="192.928932188" y="2792.92893219" /><node id="1/7to0/7_parking_4_1" type="priority" x="185.857864376" y="2800.0" /><node id="1/7to1/6_parking_1_1" type="priority" x="400.0" y="2750.0" /><node id="1/7to1/6_parking_2_1" type="priority" x="407.071067812" y="2742.92893219" /><node id="1/7to1/6_parking_3_1" type="priority" x="407.071067812" y="2592.92893219" /><node id="1/7to1/6_parking_4_1" type="priority" x="400.0" y="2585.85786438" /><node id="1/7to1/8_parking_1_1" type="priority" x="400.0" y="2850.0" /><node id="1/7to1/8_parking_2_1" type="priority" x="392.928932188" y="2857.07106781" /><node id="1/7to1/8_parking_3_1" type="priority" x="392.928932188" y="3007.07106781" /><node id="1/7to1/8_parking_4_1" type="priority" x="400.0" y="3014.14213562" /><node id="1/7to2/7_parking_1_1" type="priority" x="450.0" y="2800.0" /><node id="1/7to2/7_parking_2_1" type="priority" x="457.071067812" y="2807.07106781" /><node id="1/7to2/7_parking_3_1" type="priority" x="607.071067812" y="2807.07106781" /><node id="1/7to2/7_parking_4_1" type="priority" x="614.142135624" y="2800.0" /><node id="1/8to0/8_parking_1_1" type="priority" x="350.0" y="3200.0" /><node id="1/8to0/8_parking_2_1" type="priority" x="342.928932188" y="3192.92893219" /><node id="1/8to0/8_parking_3_1" type="priority" x="192.928932188" y="3192.92893219" /><node id="1/8to0/8_parking_4_1" type="priority" x="185.857864376" y="3200.0" /><node id="1/8to1/7_parking_1_1" type="priority" x="400.0" y="3150.0" /><node id="1/8to1/7_parking_2_1" type="priority" x="407.071067812" y="3142.92893219" /><node id="1/8to1/7_parking_3_1" type="priority" x="407.071067812" y="2992.92893219" /><node id="1/8to1/7_parking_4_1" type="priority" x="400.0" y="2985.85786438" /><node id="1/8to1/9_parking_1_1" type="priority" x="400.0" y="3250.0" /><node id="1/8to1/9_parking_2_1" type="priority" x="392.928932188" y="3257.07106781" /><node id="1/8to1/9_parking_3_1" type="priority" x="392.928932188" y="3407.07106781" /><node id="1/8to1/9_parking_4_1" type="priority" x="400.0" y="3414.14213562" /><node id="1/8to2/8_parking_1_1" type="priority" x="450.0" y="3200.0" /><node id="1/8to2/8_parking_2_1" type="priority" x="457.071067812" y="3207.07106781" /><node id="1/8to2/8_parking_3_1" type="priority" x="607.071067812" y="3207.07106781" /><node id="1/8to2/8_parking_4_1" type="priority" x="614.142135624" y="3200.0" /><node id="1/9to0/9_parking_1_1" type="priority" x="350.0" y="3600.0" /><node id="1/9to0/9_parking_2_1" type="priority" x="342.928932188" y="3592.92893219" /><node id="1/9to0/9_parking_3_1" type="priority" x="192.928932188" y="3592.92893219" /><node id="1/9to0/9_parking_4_1" type="priority" x="185.857864376" y="3600.0" /><node id="1/9to1/8_parking_1_1" type="priority" x="400.0" y="3550.0" /><node id="1/9to1/8_parking_2_1" type="priority" x="407.071067812" y="3542.92893219" /><node id="1/9to1/8_parking_3_1" type="priority" x="407.071067812" y="3392.92893219" /><node id="1/9to1/8_parking_4_1" type="priority" x="400.0" y="3385.85786438" /><node id="1/9to2/9_parking_1_1" type="priority" x="450.0" y="3600.0" /><node id="1/9to2/9_parking_2_1" type="priority" x="457.071067812" y="3607.07106781" /><node id="1/9to2/9_parking_3_1" type="priority" x="607.071067812" y="3607.07106781" /><node id="1/9to2/9_parking_4_1" type="priority" x="614.142135624" y="3600.0" /><node id="2/0to1/0_parking_1_1" type="priority" x="750.0" y="6.12323399574e-15" /><node id="2/0to1/0_parking_2_1" type="priority" x="742.928932188" y="-7.07106781187" /><node id="2/0to1/0_parking_3_1" type="priority" x="592.928932188" y="-7.07106781187" /><node id="2/0to1/0_parking_4_1" type="priority" x="585.857864376" y="2.57571741713e-14" /><node id="2/0to2/1_parking_1_1" type="priority" x="800.0" y="50.0" /><node id="2/0to2/1_parking_2_1" type="priority" x="792.928932188" y="57.0710678119" /><node id="2/0to2/1_parking_3_1" type="priority" x="792.928932188" y="207.071067812" /><node id="2/0to2/1_parking_4_1" type="priority" x="800.0" y="214.142135624" /><node id="2/0to3/0_parking_1_1" type="priority" x="850.0" y="0.0" /><node id="2/0to3/0_parking_2_1" type="priority" x="857.071067812" y="7.07106781187" /><node id="2/0to3/0_parking_3_1" type="priority" x="1007.07106781" y="7.07106781187" /><node id="2/0to3/0_parking_4_1" type="priority" x="1014.14213562" y="0.0" /><node id="2/1to1/1_parking_1_1" type="priority" x="750.0" y="400.0" /><node id="2/1to1/1_parking_2_1" type="priority" x="742.928932188" y="392.928932188" /><node id="2/1to1/1_parking_3_1" type="priority" x="592.928932188" y="392.928932188" /><node id="2/1to1/1_parking_4_1" type="priority" x="585.857864376" y="400.0" /><node id="2/1to2/0_parking_1_1" type="priority" x="800.0" y="350.0" /><node id="2/1to2/0_parking_2_1" type="priority" x="807.071067812" y="342.928932188" /><node id="2/1to2/0_parking_3_1" type="priority" x="807.071067812" y="192.928932188" /><node id="2/1to2/0_parking_4_1" type="priority" x="800.0" y="185.857864376" /><node id="2/1to2/2_parking_1_1" type="priority" x="800.0" y="450.0" /><node id="2/1to2/2_parking_2_1" type="priority" x="792.928932188" y="457.071067812" /><node id="2/1to2/2_parking_3_1" type="priority" x="792.928932188" y="607.071067812" /><node id="2/1to2/2_parking_4_1" type="priority" x="800.0" y="614.142135624" /><node id="2/1to3/1_parking_1_1" type="priority" x="850.0" y="400.0" /><node id="2/1to3/1_parking_2_1" type="priority" x="857.071067812" y="407.071067812" /><node id="2/